<configuration>
    <input>
        <net-file value="net.net.xml"/>
        <route-files value="routes.xml"/>
    </input>
    <time>
        <begin value="0"/>
        <end value="1800"/>
    </time>
</configuration>